Circuit: * Z:\media\ricardo\data\Documents\IFSC-ENGENHARIA\07\projeto_integrador_iii\eletrocardiografo\simulations\somador\somador.asc

Direct Newton iteration for .op point succeeded.

Date: Sun Dec 02 22:54:17 2018
Total elapsed time: 0.096 seconds.

tnom = 27
temp = 27
method = modified trap
totiter = 2105
traniter = 2092
tranpoints = 1047
accept = 1047
rejected = 0
matrix size = 40
fillins = 42
solver = Normal
Matrix Compiler1: 3.71 KB object code size  1.4/1.1/[0.8]
Matrix Compiler2: 3.99 KB object code size  1.0/1.1/[0.8]

