Circuit: * Z:\media\ricardo\data\Documents\IFSC-ENGENHARIA\07\projeto_integrador_iii\sim\filtros\passa_altas_vcvs_2_ordem.asc

Direct Newton iteration for .op point succeeded.

Date: Wed Sep 05 15:03:40 2018
Total elapsed time: 0.038 seconds.

tnom = 27
temp = 27
method = trap
totiter = 9
traniter = 0
tranpoints = 0
accept = 0
rejected = 0
matrix size = 33
fillins = 46
solver = Normal
Matrix Compiler1:     214 opcodes
Matrix Compiler2: 3.46 KB object code size
