Circuit: * Z:\media\ricardo\data\Documents\IFSC-ENGENHARIA\07\projeto_integrador_iii\eletrocardiografo\simulations\agc\jfet\agc.asc

Direct Newton iteration for .op point succeeded.

Date: Sat Nov 24 23:10:24 2018
Total elapsed time: 2.335 seconds.

tnom = 27
temp = 27
method = modified trap
totiter = 174860
traniter = 174839
tranpoints = 54521
accept = 37781
rejected = 16740
matrix size = 80
fillins = 173
solver = Normal
Matrix Compiler1: 14.32 KB object code size  3.2/1.8/[1.2]
Matrix Compiler2: 9.57 KB object code size  1.3/1.6/[1.0]

