Circuit: * Z:\media\ricardo\data\Documents\IFSC-ENGENHARIA\07\projeto_integrador_iii\eletrocardiografo\simulations\agc\jfet\agc_1.asc

Early termination of direct N-R iteration.
Direct Newton iteration failed to find .op point.  (Use ".option noopiter" to skip.)
Starting Gmin stepping
Increasing initial diagonal Gmin to 100
Increasing initial diagonal Gmin to 1000
Gmin = 1000
vernier = 0.5
vernier = 0.25
vernier = 0.125
vernier = 0.0625
Gmin = 969.467
vernier = 0.03125
vernier = 0.015625
vernier = 0.0078125
vernier = 0.00390625
vernier = 0.00195313
Gmin = 976.983
vernier = 0.000976563
vernier = 0.000488281
Gmin = 0
Gmin stepping failed

Starting source stepping with srcstepmethod=0
Source Step = 3.0303%
Source Step = 33.3333%
Source Step = 63.6364%
Source Step = 93.9394%
Source stepping succeeded in finding the operating point.


Date: Wed Nov 21 17:24:22 2018
Total elapsed time: 12.339 seconds.

tnom = 27
temp = 27
method = modified trap
totiter = 659719
traniter = 657821
tranpoints = 202731
accept = 131540
rejected = 71191
matrix size = 110
fillins = 251
solver = Normal
Thread vector: 9.3/6.8[2] 2.8/2.7[1] 3.0/2.7[1] 1.1/3.1[1]  2592/500
Matrix Compiler1: 17.84 KB object code size  4.6/2.4/[1.5]
Matrix Compiler2: 13.65 KB object code size  2.7/3.0/[1.3]

