Circuit: * Z:\media\ricardo\data\Documents\IFSC-ENGENHARIA\07\projeto_integrador_iii\eletrocardiografo\simulations\agc\jfet\agc_6.asc

WARNING: Less than two connections to node N001.  This node is used by V3.
Direct Newton iteration for .op point succeeded.

Date: Wed Nov 28 13:37:07 2018
Total elapsed time: 0.763 seconds.

tnom = 27
temp = 27
method = modified trap
totiter = 47978
traniter = 47961
tranpoints = 14809
accept = 10791
rejected = 4018
matrix size = 82
fillins = 181
solver = Normal
Matrix Compiler1: 15.63 KB object code size  3.4/1.9/[1.3]
Matrix Compiler2: 9.77 KB object code size  1.4/1.7/[1.0]

