Circuit: * Z:\media\ricardo\data\Documents\IFSC-ENGENHARIA\07\projeto_integrador_iii\eletrocardiografo\simulations\agc\jfet\agc_7.asc

WARNING: Less than two connections to node N008.  This node is used by R8.
WARNING: Less than two connections to node NC_01.  This node is used by V3.
WARNING: Less than two connections to node NC_02.  This node is used by R10.
Early termination of direct N-R iteration.
Direct Newton iteration failed to find .op point.  (Use ".option noopiter" to skip.)
Starting Gmin stepping
Increasing initial diagonal Gmin to 100
Increasing initial diagonal Gmin to 1000
Gmin = 1000
vernier = 0.5
vernier = 0.25
vernier = 0.125
vernier = 0.0625
Gmin = 969.467
vernier = 0.03125
vernier = 0.015625
vernier = 0.0078125
vernier = 0.00390625
vernier = 0.00195313
Gmin = 976.983
vernier = 0.000976563
vernier = 0.000488281
Gmin = 0
Gmin stepping failed

Starting source stepping with srcstepmethod=0
Source Step = 3.0303%
Source Step = 33.3333%
Source Step = 63.6364%
Source Step = 93.9394%
Source stepping succeeded in finding the operating point.


Date: Sun Nov 25 10:48:39 2018
Total elapsed time: 7.602 seconds.

tnom = 27
temp = 27
method = modified trap
totiter = 413515
traniter = 411657
tranpoints = 114592
accept = 80857
rejected = 33735
matrix size = 115
fillins = 287
solver = Normal
Thread vector: 9.4/7.2[2] 2.7/2.4[2] 4.1/3.5[2] 1.1/1.8[1]  2592/500
Matrix Compiler1: 25.17 KB object code size  5.6/3.1/[2.0]
Matrix Compiler2: 14.18 KB object code size  2.3/2.9/[1.3]

