Circuit: * Z:\media\ricardo\data\Documents\IFSC-ENGENHARIA\07\projeto_integrador_iii\eletrocardiografo\simulations\agc\jfet\agc_5.asc

WARNING: Less than two connections to node NC_01.  This node is used by V3.
Early termination of direct N-R iteration.
Direct Newton iteration failed to find .op point.  (Use ".option noopiter" to skip.)
Starting Gmin stepping
Increasing initial diagonal Gmin to 100
Increasing initial diagonal Gmin to 1000
Gmin = 1000
vernier = 0.5
vernier = 0.25
vernier = 0.125
vernier = 0.0625
Gmin = 969.467
vernier = 0.03125
vernier = 0.015625
vernier = 0.0078125
vernier = 0.00390625
vernier = 0.00195313
Gmin = 976.983
vernier = 0.000976563
vernier = 0.000488281
Gmin = 0
Gmin stepping failed

Starting source stepping with srcstepmethod=0
Source Step = 3.0303%
Source Step = 33.3333%
Source Step = 63.6364%
Source Step = 93.9394%
Source stepping succeeded in finding the operating point.


Date: Sat Nov 24 23:01:13 2018
Total elapsed time: 1.107 seconds.

tnom = 27
temp = 27
method = modified trap
totiter = 65824
traniter = 63946
tranpoints = 18964
accept = 13584
rejected = 5380
matrix size = 81
fillins = 182
solver = Normal
Matrix Compiler1: 13.59 KB object code size  4.6/2.7/[1.9]
Matrix Compiler2: 9.78 KB object code size  1.5/1.7/[1.5]

