Circuit: * Z:\media\ricardo\data\Documents\IFSC-ENGENHARIA\07\projeto_integrador_iii\eletrocardiografo\simulations\agc\jfet\agc_9.asc

WARNING: Less than two connections to node NC_01.  This node is used by V3.
Early termination of direct N-R iteration.
Direct Newton iteration failed to find .op point.  (Use ".option noopiter" to skip.)
Starting Gmin stepping
Increasing initial diagonal Gmin to 100
Increasing initial diagonal Gmin to 1000
Gmin = 1000
vernier = 0.5
vernier = 0.25
vernier = 0.125
vernier = 0.0625
Gmin = 969.467
vernier = 0.03125
vernier = 0.015625
vernier = 0.0078125
vernier = 0.00390625
vernier = 0.00195313
Gmin = 976.983
vernier = 0.000976563
vernier = 0.000488281
Gmin = 0
Gmin stepping failed

Starting source stepping with srcstepmethod=0
Source Step = 3.0303%
Source Step = 33.3333%
Source Step = 63.6364%
Source Step = 93.9394%
Source stepping succeeded in finding the operating point.


Date: Mon Nov 26 12:45:52 2018
Total elapsed time: 0.574 seconds.

tnom = 27
temp = 27
method = modified trap
totiter = 26245
traniter = 24373
tranpoints = 7581
accept = 5625
rejected = 1956
matrix size = 82
fillins = 207
solver = Normal
Matrix Compiler1: 18.72 KB object code size  3.8/2.2/[1.6]
Matrix Compiler2: 10.13 KB object code size  1.6/1.6/[1.1]

