Circuit: * Z:\media\ricardo\data\Documents\IFSC-ENGENHARIA\07\projeto_integrador_iii\eletrocardiografo\simulations\agc\jfet\agc_livro.asc

Early termination of direct N-R iteration.
Direct Newton iteration failed to find .op point.  (Use ".option noopiter" to skip.)
Starting Gmin stepping
Increasing initial diagonal Gmin to 100
Increasing initial diagonal Gmin to 1000
Gmin = 1000
vernier = 0.5
vernier = 0.25
vernier = 0.125
vernier = 0.0625
Gmin = 836.601
vernier = 0.03125
vernier = 0.015625
vernier = 0.0078125
vernier = 0.00390625
Gmin = 822.125
vernier = 0.00195313
vernier = 0.000976563
vernier = 0.000488281
Gmin = 0
Gmin = 0
Gmin stepping failed

Starting source stepping with srcstepmethod=0
Source Step = 3.0303%
Source Step = 33.3333%
Source Step = 63.6364%
Source Step = 93.9394%
Source stepping succeeded in finding the operating point.


Date: Wed Nov 28 13:45:13 2018
Total elapsed time: 0.437 seconds.

tnom = 27
temp = 27
method = modified trap
totiter = 5758
traniter = 3885
tranpoints = 1328
accept = 1219
rejected = 109
matrix size = 116
fillins = 270
solver = Normal
Thread vector: 14.9/10.8[2] 3.7/3.2[2] 4.5/4.4[1] 1.5/2.0[1]  2592/500
Matrix Compiler1: 21.13 KB object code size  6.1/3.4/[1.7]
Matrix Compiler2: 14.44 KB object code size  3.9/4.1/[2.2]

