Circuit: * Z:\media\ricardo\data\Documents\IFSC-ENGENHARIA\07\projeto_integrador_iii\eletrocardiografo\simulations\agc\jfet\agc_3.asc

Early termination of direct N-R iteration.
Direct Newton iteration failed to find .op point.  (Use ".option noopiter" to skip.)
Starting Gmin stepping
Increasing initial diagonal Gmin to 100
Increasing initial diagonal Gmin to 1000
Gmin = 1000
vernier = 0.5
vernier = 0.25
vernier = 0.125
vernier = 0.0625
Gmin = 969.467
vernier = 0.03125
vernier = 0.015625
vernier = 0.0078125
vernier = 0.00390625
vernier = 0.00195313
Gmin = 976.983
vernier = 0.000976563
vernier = 0.000488281
Gmin = 0
Gmin stepping failed

Starting source stepping with srcstepmethod=0
Source Step = 3.0303%
Source Step = 33.3333%
Source Step = 63.6364%
Source Step = 93.9394%
Source stepping succeeded in finding the operating point.


Date: Wed Nov 21 17:02:06 2018
Total elapsed time: 0.802 seconds.

tnom = 27
temp = 27
method = modified trap
totiter = 14946
traniter = 13072
tranpoints = 3695
accept = 2837
rejected = 858
matrix size = 146
fillins = 607
solver = Normal
Thread vector: 13.9/10.6[2] 3.6/4.0[1] 5.7/4.9[2] 1.5/2.5[1]  2592/500
Matrix Compiler1: 62.68 KB object code size  11.5/6.7/[4.7]
Matrix Compiler2: 22.86 KB object code size  3.3/4.6/[1.9]

