Circuit: * Z:\media\ricardo\data\Documents\IFSC-ENGENHARIA\07\projeto_integrador_iii\eletrocardiografo\simulations\agc\agc_jfet.asc

WARNING: Less than two connections to node N001.  This node is used by V3.
Direct Newton iteration for .op point succeeded.

Date: Fri Nov 30 12:32:34 2018
Total elapsed time: 0.428 seconds.

tnom = 27
temp = 27
method = modified trap
totiter = 25485
traniter = 25467
tranpoints = 7630
accept = 5688
rejected = 1942
matrix size = 82
fillins = 181
solver = Normal
Matrix Compiler1: 15.63 KB object code size  5.2/3.0/[1.3]
Matrix Compiler2: 9.77 KB object code size  1.9/2.4/[1.2]

