Circuit: * Z:\media\ricardo\data\Documents\IFSC-ENGENHARIA\07\projeto_integrador_iii\eletrocardiografo\simulations\agc\agc_jfet.asc

WARNING: Less than two connections to node N001.  This node is used by V3.
Direct Newton iteration for .op point succeeded.

Date: Sun Dec 16 16:39:01 2018
Total elapsed time: 0.849 seconds.

tnom = 27
temp = 27
method = modified trap
totiter = 53292
traniter = 53274
tranpoints = 15602
accept = 11296
rejected = 4306
matrix size = 82
fillins = 181
solver = Normal
Matrix Compiler1: 15.63 KB object code size  4.9/2.8/[1.3]
Matrix Compiler2: 9.77 KB object code size  1.8/2.2/[1.1]

