Circuit: * Z:\media\ricardo\data\Documents\IFSC-ENGENHARIA\07\projeto_integrador_iii\eletrocardiografo\simulations\filtros\passa_baixas_vcvs_2_ordem.asc

Direct Newton iteration for .op point succeeded.

Date: Fri Sep 21 19:19:17 2018
Total elapsed time: 0.039 seconds.

tnom = 27
temp = 27
method = trap
totiter = 9
traniter = 0
tranpoints = 0
accept = 0
rejected = 0
matrix size = 35
fillins = 49
solver = Normal
Matrix Compiler1:     240 opcodes
Matrix Compiler2: 3.61 KB object code size
