Circuit: * Z:\media\ricardo\data\Documents\IFSC-ENGENHARIA\07\projeto_integrador_iii\eletrocardiografo\simulations\filtros\passa_altas_vcvs_2_ordem.asc

Direct Newton iteration for .op point succeeded.

Date: Sat Dec 01 12:24:06 2018
Total elapsed time: 0.066 seconds.

tnom = 27
temp = 27
method = modified trap
totiter = 2107
traniter = 2098
tranpoints = 1050
accept = 1049
rejected = 1
matrix size = 33
fillins = 57
solver = Normal
Matrix Compiler1: 4.73 KB object code size  1.2/0.8/[0.6]
Matrix Compiler2: 3.64 KB object code size  0.7/0.8/[0.7]

