Circuit: * Z:\media\ricardo\data\Documents\IFSC-ENGENHARIA\07\projeto_integrador_iii\eletrocardiografo\simulations\filtros\passa_baixas_mfb_2_ordem.asc

Direct Newton iteration failed to find .op point.  (Use ".option noopiter" to skip.)
Starting Gmin stepping
Increasing initial diagonal Gmin to 100
Gmin = 100
Gmin = 10.7374
vernier = 0.5
vernier = 0.25
vernier = 0.125
vernier = 0.0625
vernier = 0.03125
Gmin = 13.0151
vernier = 0.015625
vernier = 0.0078125
vernier = 0.00390625
vernier = 0.00195313
Gmin = 12.889
vernier = 0.000976563
vernier = 0.000488281
Gmin = 0
Gmin stepping failed

Starting source stepping with srcstepmethod=0
Source Step = 3.0303%
Source Step = 33.3333%
Source Step = 63.6364%
Source Step = 93.9394%
Source stepping succeeded in finding the operating point.


Date: Wed Nov 07 14:49:45 2018
Total elapsed time: 0.060 seconds.

tnom = 27
temp = 27
method = trap
totiter = 1759
traniter = 0
tranpoints = 0
accept = 0
rejected = 0
matrix size = 36
fillins = 47
solver = Normal
Matrix Compiler1:     211 opcodes
Matrix Compiler2:     279 opcodes  1.3/[1.2]/1.7

