Circuit: * Z:\media\ricardo\data\Documents\IFSC-ENGENHARIA\07\projeto_integrador_iii\eletrocardiografo\simulations\filtros\passa_altas_mfb_2_ordem.asc

Direct Newton iteration failed to find .op point.  (Use ".option noopiter" to skip.)
Starting Gmin stepping
Increasing initial diagonal Gmin to 100
Gmin = 100
Gmin = 10.7374
vernier = 0.5
vernier = 0.25
vernier = 0.125
vernier = 0.0625
vernier = 0.03125
Gmin = 13.0151
vernier = 0.015625
vernier = 0.0078125
vernier = 0.00390625
vernier = 0.00195313
Gmin = 12.889
vernier = 0.000976563
vernier = 0.000488281
Gmin = 0
Gmin stepping succeeded in finding the operating point.


Date: Fri Oct 05 13:26:22 2018
Total elapsed time: 0.045 seconds.

tnom = 27
temp = 27
method = trap
totiter = 1515
traniter = 0
tranpoints = 0
accept = 0
rejected = 0
matrix size = 33
fillins = 58
solver = Normal
Matrix Compiler1:     245 opcodes
Matrix Compiler2: off  [0.7]/0.8/1.0

