Circuit: * Z:\media\ricardo\data\Documents\IFSC-ENGENHARIA\07\projeto_integrador_iii\eletrocardiografo\simulations\filtros\passa_altas_vcvs_2_ordem.asc

Direct Newton iteration for .op point succeeded.

Date: Wed Dec 12 13:41:05 2018
Total elapsed time: 0.065 seconds.

tnom = 27
temp = 27
method = trap
totiter = 13
traniter = 0
tranpoints = 0
accept = 0
rejected = 0
matrix size = 39
fillins = 62
solver = Normal
Matrix Compiler1:     287 opcodes
Matrix Compiler2: 4.24 KB object code size
