Circuit: * AD620 SPICE Macro-model

Fatal Error: No analysis request found.
