Circuit: * Z:\media\ricardo\data\Documents\IFSC-ENGENHARIA\07\projeto_integrador_iii\sim\ad620\ad620_v1.asc

Direct Newton iteration failed to find .op point.  (Use ".option noopiter" to skip.)
Starting Gmin stepping
Gmin = 10
Gmin = 1.07374
Gmin = 0.115292
Gmin = 0.0123794
Gmin = 0.00132923
vernier = 0.5
vernier = 0.25
vernier = 0.125
vernier = 0.0625
Gmin = 0.00100083
vernier = 0.03125
vernier = 0.015625
vernier = 0.0078125
vernier = 0.00390625
vernier = 0.00195313
Gmin = 0.00100083
vernier = 0.000976563
vernier = 0.000488281
Gmin = 0
Gmin stepping succeeded in finding the operating point.


Date: Wed Sep 05 16:51:05 2018
Total elapsed time: 93.900 seconds.

tnom = 27
temp = 27
method = modified trap
totiter = 8539766
traniter = 8538065
tranpoints = 1395054
accept = 1046491
rejected = 348563
matrix size = 57
fillins = 100
solver = Normal
Matrix Compiler1: 8.65 KB object code size  2.1/1.2/[0.9]
Matrix Compiler2: 6.63 KB object code size  2.5/2.4/[1.2]

