Circuit: * Z:\media\ricardo\data\Documents\IFSC-ENGENHARIA\07\projeto_integrador_iii\sim\ad620\ad620_v2.asc

Direct Newton iteration for .op point succeeded.

Date: Thu Aug 30 21:20:24 2018
Total elapsed time: 0.089 seconds.

tnom = 27
temp = 27
method = modified trap
totiter = 3649
traniter = 3603
tranpoints = 1108
accept = 1096
rejected = 12
matrix size = 56
fillins = 93
solver = Normal
Matrix Compiler1: 8.12 KB object code size  2.6/1.5/[1.0]
Matrix Compiler2: off  [1.2]/2.6/1.5

